<nodes>
    <node id="nN" x="0.0" y="500.0" type="priority"/>
    <node id="nS" x="0.0" y="-500.0" type="priority"/>
    <node id="nE" x="500.0" y="0.0" type="priority"/>
    <node id="nW" x="-500.0" y="0.0" type="priority"/>
    <node id="center" x="0.0" y="0.0" type="traffic_light"/>
</nodes>
