<configuration>

    <input>
        <net-file value="../network/intersection.net.xml"/>
        <route-files value="../routes/medium_random.rou.xml"/>
    </input>

    <time>
        <begin value="0"/>
        <end value="1200"/>
    </time>

</configuration>